REMARK SMILES Cc1c(NC(=O)c2ccc(C(C)(C)C)cc2)cccc1-c1cn(C)c(=O)c(Nc2ccc(C(=O)N3CCOCC3)cc2)n1
REMARK SMILES IDX 20 1 2 2 1 3 3 4 17 5 18 6 19 7 21 8 43 9 22 10 27 11 23 12
REMARK SMILES IDX 25 13 24 14 26 15 28 16 29 18 30 19 42 20 31 21 41 22 32 23
REMARK SMILES IDX 33 24 34 25 35 26 36 27 40 28 37 29 39 30 38 31 4 32 5 33
REMARK SMILES IDX 6 35 7 36 8 37 16 38 9 39 15 40 10 41 11 42 12 43 13 44
REMARK SMILES IDX 14 45
REMARK H PARENT 28 17 4 34
REMARK Flexibility Score: inf
ROOT
ATOM      1  C   UNL     1     -43.485  19.277   8.901  1.00  0.00     0.007 A 
ATOM      2  C   UNL     1     -43.511  19.821   7.587  1.00  0.00    -0.018 A 
ATOM      3  C   UNL     1     -42.896  19.038   6.433  1.00  0.00     0.047 C 
ATOM      4  C   UNL     1     -44.081  21.098   7.360  1.00  0.00     0.045 A 
ATOM      5  C   UNL     1     -44.619  21.831   8.399  1.00  0.00     0.026 A 
ATOM      6  C   UNL     1     -44.616  21.287   9.683  1.00  0.00     0.003 A 
ATOM      7  C   UNL     1     -44.061  20.029   9.942  1.00  0.00     0.011 A 
ENDROOT
BRANCH   1   8
ATOM      8  C   UNL     1     -42.926  17.946   9.281  1.00  0.00     0.089 A 
ATOM      9  N   UNL     1     -42.318  17.785  10.502  1.00  0.00    -0.224 NA
ATOM     10  C   UNL     1     -43.056  16.826   8.453  1.00  0.00     0.118 A 
ATOM     11  C   UNL     1     -41.814  16.589  10.875  1.00  0.00     0.197 A 
ATOM     12  N   UNL     1     -42.543  15.634   8.846  1.00  0.00    -0.313 N 
ATOM     13  C   UNL     1     -41.941  15.488  10.031  1.00  0.00     0.293 A 
ATOM     14  C   UNL     1     -42.685  14.499   7.912  1.00  0.00     0.153 C 
ATOM     15  O   UNL     1     -41.476  14.353  10.390  1.00  0.00    -0.265 OA
BRANCH  11  16
ATOM     16  N   UNL     1     -41.201  16.377  12.064  1.00  0.00    -0.336 N 
ATOM     17  H   UNL     1     -40.864  15.414  12.206  1.00  0.00     0.168 HD
BRANCH  16  18
ATOM     18  C   UNL     1     -40.955  17.222  13.104  1.00  0.00     0.040 A 
ATOM     19  C   UNL     1     -41.265  18.581  13.110  1.00  0.00     0.027 A 
ATOM     20  C   UNL     1     -40.358  16.643  14.222  1.00  0.00     0.027 A 
ATOM     21  C   UNL     1     -40.935  19.354  14.224  1.00  0.00     0.016 A 
ATOM     22  C   UNL     1     -40.042  17.398  15.336  1.00  0.00     0.016 A 
ATOM     23  C   UNL     1     -40.316  18.761  15.335  1.00  0.00     0.040 A 
BRANCH  23  24
ATOM     24  C   UNL     1     -39.942  19.575  16.552  1.00  0.00     0.254 C 
ATOM     25  O   UNL     1     -40.786  20.329  17.001  1.00  0.00    -0.269 OA
ATOM     26  N   UNL     1     -38.709  19.468  17.093  1.00  0.00    -0.334 N 
ATOM     27  C   UNL     1     -38.339  20.271  18.270  1.00  0.00     0.148 C 
ATOM     28  C   UNL     1     -37.635  18.604  16.535  1.00  0.00     0.148 C 
ATOM     29  C   UNL     1     -37.726  19.312  19.288  1.00  0.00     0.181 C 
ATOM     30  C   UNL     1     -36.988  17.786  17.650  1.00  0.00     0.181 C 
ATOM     31  O   UNL     1     -36.588  18.680  18.686  1.00  0.00    -0.378 OA
ENDBRANCH  23  24
ENDBRANCH  16  18
ENDBRANCH  11  16
ENDBRANCH   1   8
BRANCH   4  32
ATOM     32  N   UNL     1     -44.036  21.598   6.087  1.00  0.00    -0.322 N 
ATOM     33  C   UNL     1     -44.847  21.177   5.115  1.00  0.00     0.255 C 
ATOM     34  H   UNL     1     -43.346  22.331   5.870  1.00  0.00     0.170 HD
ATOM     35  O   UNL     1     -45.755  20.366   5.298  1.00  0.00    -0.269 OA
BRANCH  33  36
ATOM     36  C   UNL     1     -44.575  21.665   3.708  1.00  0.00     0.040 A 
ATOM     37  C   UNL     1     -45.554  21.633   2.701  1.00  0.00     0.014 A 
ATOM     38  C   UNL     1     -43.255  22.056   3.411  1.00  0.00     0.014 A 
ATOM     39  C   UNL     1     -45.242  22.056   1.402  1.00  0.00     0.005 A 
ATOM     40  C   UNL     1     -42.939  22.455   2.106  1.00  0.00     0.005 A 
ATOM     41  C   UNL     1     -43.929  22.465   1.091  1.00  0.00    -0.043 A 
BRANCH  41  42
ATOM     42  C   UNL     1     -43.594  22.940  -0.310  1.00  0.00    -0.013 C 
ATOM     43  C   UNL     1     -43.371  24.452  -0.258  1.00  0.00     0.016 C 
ATOM     44  C   UNL     1     -44.735  22.652  -1.277  1.00  0.00     0.016 C 
ATOM     45  C   UNL     1     -42.313  22.291  -0.848  1.00  0.00     0.016 C 
ENDBRANCH  41  42
ENDBRANCH  33  36
ENDBRANCH   4  32
TORSDOF 7
