MODEL 1
REMARK VINA RESULT:   -11.989      0.000      0.000
REMARK INTER + INTRA:         -17.221
REMARK INTER:                 -16.895
REMARK INTRA:                  -0.326
REMARK UNBOUND:                -0.326
REMARK SMILES Cc1c(NC(=O)c2ccc(C(C)(C)C)cc2)cccc1-c1cn(C)c(=O)c(Nc2ccc(C(=O)N3CCOCC3)cc2)n1
REMARK SMILES IDX 20 1 2 2 1 3 3 4 17 5 18 6 19 7 21 8 43 9 22 10 27 11 23 12
REMARK SMILES IDX 25 13 24 14 26 15 28 16 29 18 30 19 42 20 31 21 41 22 32 23
REMARK SMILES IDX 33 24 34 25 35 26 36 27 40 28 37 29 39 30 38 31 4 32 5 33
REMARK SMILES IDX 6 35 7 36 8 37 16 38 9 39 15 40 10 41 11 42 12 43 13 44
REMARK SMILES IDX 14 45
REMARK H PARENT 28 17 4 34
REMARK Flexibility Score: inf
ROOT
ATOM      1  C   UNL     1     -43.508  19.332   8.890  1.00  0.00     0.007 A 
ATOM      2  C   UNL     1     -43.496  19.859   7.569  1.00  0.00    -0.018 A 
ATOM      3  C   UNL     1     -42.870  19.049   6.439  1.00  0.00     0.047 C 
ATOM      4  C   UNL     1     -44.038  21.142   7.313  1.00  0.00     0.045 A 
ATOM      5  C   UNL     1     -44.585  21.898   8.330  1.00  0.00     0.026 A 
ATOM      6  C   UNL     1     -44.620  21.372   9.621  1.00  0.00     0.003 A 
ATOM      7  C   UNL     1     -44.093  20.108   9.908  1.00  0.00     0.011 A 
ENDROOT
BRANCH   1   8
ATOM      8  C   UNL     1     -42.982  17.996   9.300  1.00  0.00     0.089 A 
ATOM      9  N   UNL     1     -42.453  17.828  10.556  1.00  0.00    -0.224 NA
ATOM     10  C   UNL     1     -43.065  16.880   8.461  1.00  0.00     0.118 A 
ATOM     11  C   UNL     1     -41.980  16.628  10.956  1.00  0.00     0.197 A 
ATOM     12  N   UNL     1     -42.584  15.684   8.881  1.00  0.00    -0.313 N 
ATOM     13  C   UNL     1     -42.059  15.530  10.101  1.00  0.00     0.293 A 
ATOM     14  C   UNL     1     -42.673  14.553   7.936  1.00  0.00     0.153 C 
ATOM     15  O   UNL     1     -41.624  14.392  10.485  1.00  0.00    -0.265 OA
BRANCH  11  16
ATOM     16  N   UNL     1     -41.444  16.408  12.180  1.00  0.00    -0.336 N 
ATOM     17  H   UNL     1     -41.140  15.438  12.347  1.00  0.00     0.168 HD
BRANCH  16  18
ATOM     18  C   UNL     1     -41.240  17.254  13.229  1.00  0.00     0.040 A 
ATOM     19  C   UNL     1     -41.676  18.577  13.276  1.00  0.00     0.027 A 
ATOM     20  C   UNL     1     -40.550  16.713  14.313  1.00  0.00     0.027 A 
ATOM     21  C   UNL     1     -41.379  19.357  14.394  1.00  0.00     0.016 A 
ATOM     22  C   UNL     1     -40.265  17.474  15.431  1.00  0.00     0.016 A 
ATOM     23  C   UNL     1     -40.666  18.805  15.470  1.00  0.00     0.040 A 
BRANCH  23  24
ATOM     24  C   UNL     1     -40.325  19.628  16.690  1.00  0.00     0.254 C 
ATOM     25  O   UNL     1     -41.150  19.668  17.585  1.00  0.00    -0.269 OA
ATOM     26  N   UNL     1     -39.155  20.299  16.757  1.00  0.00    -0.334 N 
ATOM     27  C   UNL     1     -38.828  21.112  17.939  1.00  0.00     0.148 C 
ATOM     28  C   UNL     1     -38.153  20.321  15.658  1.00  0.00     0.148 C 
ATOM     29  C   UNL     1     -37.421  20.714  18.378  1.00  0.00     0.181 C 
ATOM     30  C   UNL     1     -36.758  20.050  16.216  1.00  0.00     0.181 C 
ATOM     31  O   UNL     1     -36.521  20.959  17.289  1.00  0.00    -0.378 OA
ENDBRANCH  23  24
ENDBRANCH  16  18
ENDBRANCH  11  16
ENDBRANCH   1   8
BRANCH   4  32
ATOM     32  N   UNL     1     -43.956  21.624   6.035  1.00  0.00    -0.322 N 
ATOM     33  C   UNL     1     -44.855  21.334   5.093  1.00  0.00     0.255 C 
ATOM     34  H   UNL     1     -43.166  22.238   5.789  1.00  0.00     0.170 HD
ATOM     35  O   UNL     1     -45.873  20.677   5.312  1.00  0.00    -0.269 OA
BRANCH  33  36
ATOM     36  C   UNL     1     -44.555  21.767   3.674  1.00  0.00     0.040 A 
ATOM     37  C   UNL     1     -45.263  21.262   2.570  1.00  0.00     0.014 A 
ATOM     38  C   UNL     1     -43.454  22.624   3.486  1.00  0.00     0.014 A 
ATOM     39  C   UNL     1     -44.921  21.662   1.271  1.00  0.00     0.005 A 
ATOM     40  C   UNL     1     -43.097  23.003   2.185  1.00  0.00     0.005 A 
ATOM     41  C   UNL     1     -43.830  22.531   1.067  1.00  0.00    -0.043 A 
BRANCH  41  42
ATOM     42  C   UNL     1     -43.469  22.979  -0.337  1.00  0.00    -0.013 C 
ATOM     43  C   UNL     1     -43.375  24.505  -0.339  1.00  0.00     0.016 C 
ATOM     44  C   UNL     1     -44.535  22.558  -1.340  1.00  0.00     0.016 C 
ATOM     45  C   UNL     1     -42.115  22.420  -0.790  1.00  0.00     0.016 C 
ENDBRANCH  41  42
ENDBRANCH  33  36
ENDBRANCH   4  32
TORSDOF 7
ENDMDL
MODEL 2
REMARK VINA RESULT:   -11.867      1.270      2.043
REMARK INTER + INTRA:         -17.050
REMARK INTER:                 -16.610
REMARK INTRA:                  -0.440
REMARK UNBOUND:                -0.326
REMARK SMILES Cc1c(NC(=O)c2ccc(C(C)(C)C)cc2)cccc1-c1cn(C)c(=O)c(Nc2ccc(C(=O)N3CCOCC3)cc2)n1
REMARK SMILES IDX 20 1 2 2 1 3 3 4 17 5 18 6 19 7 21 8 43 9 22 10 27 11 23 12
REMARK SMILES IDX 25 13 24 14 26 15 28 16 29 18 30 19 42 20 31 21 41 22 32 23
REMARK SMILES IDX 33 24 34 25 35 26 36 27 40 28 37 29 39 30 38 31 4 32 5 33
REMARK SMILES IDX 6 35 7 36 8 37 16 38 9 39 15 40 10 41 11 42 12 43 13 44
REMARK SMILES IDX 14 45
REMARK H PARENT 28 17 4 34
REMARK Flexibility Score: inf
ROOT
ATOM      1  C   UNL     1     -43.542  19.345   8.892  1.00  0.00     0.007 A 
ATOM      2  C   UNL     1     -43.540  19.886   7.577  1.00  0.00    -0.018 A 
ATOM      3  C   UNL     1     -42.895  19.102   6.439  1.00  0.00     0.047 C 
ATOM      4  C   UNL     1     -44.110  21.159   7.333  1.00  0.00     0.045 A 
ATOM      5  C   UNL     1     -44.675  21.893   8.357  1.00  0.00     0.026 A 
ATOM      6  C   UNL     1     -44.699  21.353   9.643  1.00  0.00     0.003 A 
ATOM      7  C   UNL     1     -44.144  20.098   9.918  1.00  0.00     0.011 A 
ENDROOT
BRANCH   1   8
ATOM      8  C   UNL     1     -42.986  18.018   9.289  1.00  0.00     0.089 A 
ATOM      9  N   UNL     1     -42.369  17.873  10.508  1.00  0.00    -0.224 NA
ATOM     10  C   UNL     1     -43.127  16.886   8.480  1.00  0.00     0.118 A 
ATOM     11  C   UNL     1     -41.868  16.681  10.896  1.00  0.00     0.197 A 
ATOM     12  N   UNL     1     -42.617  15.698   8.887  1.00  0.00    -0.313 N 
ATOM     13  C   UNL     1     -42.006  15.567  10.070  1.00  0.00     0.293 A 
ATOM     14  C   UNL     1     -42.771  14.549   7.972  1.00  0.00     0.153 C 
ATOM     15  O   UNL     1     -41.544  14.436  10.443  1.00  0.00    -0.265 OA
BRANCH  11  16
ATOM     16  N   UNL     1     -41.247  16.484  12.083  1.00  0.00    -0.336 N 
ATOM     17  H   UNL     1     -40.768  15.576  12.171  1.00  0.00     0.168 HD
BRANCH  16  18
ATOM     18  C   UNL     1     -41.148  17.285  13.181  1.00  0.00     0.040 A 
ATOM     19  C   UNL     1     -41.276  18.673  13.163  1.00  0.00     0.027 A 
ATOM     20  C   UNL     1     -40.910  16.627  14.386  1.00  0.00     0.027 A 
ATOM     21  C   UNL     1     -41.123  19.390  14.350  1.00  0.00     0.016 A 
ATOM     22  C   UNL     1     -40.772  17.328  15.569  1.00  0.00     0.016 A 
ATOM     23  C   UNL     1     -40.864  18.716  15.553  1.00  0.00     0.040 A 
BRANCH  23  24
ATOM     24  C   UNL     1     -40.687  19.467  16.852  1.00  0.00     0.254 C 
ATOM     25  O   UNL     1     -39.556  19.568  17.291  1.00  0.00    -0.269 OA
ATOM     26  N   UNL     1     -41.758  19.984  17.493  1.00  0.00    -0.334 N 
ATOM     27  C   UNL     1     -41.589  20.705  18.766  1.00  0.00     0.148 C 
ATOM     28  C   UNL     1     -43.159  19.829  17.018  1.00  0.00     0.148 C 
ATOM     29  C   UNL     1     -42.347  22.024  18.634  1.00  0.00     0.181 C 
ATOM     30  C   UNL     1     -43.877  21.175  17.055  1.00  0.00     0.181 C 
ATOM     31  O   UNL     1     -43.724  21.729  18.359  1.00  0.00    -0.378 OA
ENDBRANCH  23  24
ENDBRANCH  16  18
ENDBRANCH  11  16
ENDBRANCH   1   8
BRANCH   4  32
ATOM     32  N   UNL     1     -44.038  21.656   6.060  1.00  0.00    -0.322 N 
ATOM     33  C   UNL     1     -44.938  21.368   5.119  1.00  0.00     0.255 C 
ATOM     34  H   UNL     1     -43.255  22.279   5.818  1.00  0.00     0.170 HD
ATOM     35  O   UNL     1     -45.950  20.700   5.335  1.00  0.00    -0.269 OA
BRANCH  33  36
ATOM     36  C   UNL     1     -44.649  21.820   3.703  1.00  0.00     0.040 A 
ATOM     37  C   UNL     1     -45.280  21.243   2.588  1.00  0.00     0.014 A 
ATOM     38  C   UNL     1     -43.630  22.776   3.533  1.00  0.00     0.014 A 
ATOM     39  C   UNL     1     -44.948  21.666   1.294  1.00  0.00     0.005 A 
ATOM     40  C   UNL     1     -43.281  23.179   2.238  1.00  0.00     0.005 A 
ATOM     41  C   UNL     1     -43.940  22.634   1.107  1.00  0.00    -0.043 A 
BRANCH  41  42
ATOM     42  C   UNL     1     -43.591  23.105  -0.292  1.00  0.00    -0.013 C 
ATOM     43  C   UNL     1     -43.646  24.633  -0.306  1.00  0.00     0.016 C 
ATOM     44  C   UNL     1     -44.587  22.576  -1.316  1.00  0.00     0.016 C 
ATOM     45  C   UNL     1     -42.178  22.679  -0.709  1.00  0.00     0.016 C 
ENDBRANCH  41  42
ENDBRANCH  33  36
ENDBRANCH   4  32
TORSDOF 7
ENDMDL
MODEL 3
REMARK VINA RESULT:   -10.194      2.573      4.255
REMARK INTER + INTRA:         -14.692
REMARK INTER:                 -13.748
REMARK INTRA:                  -0.944
REMARK UNBOUND:                -0.326
REMARK SMILES Cc1c(NC(=O)c2ccc(C(C)(C)C)cc2)cccc1-c1cn(C)c(=O)c(Nc2ccc(C(=O)N3CCOCC3)cc2)n1
REMARK SMILES IDX 20 1 2 2 1 3 3 4 17 5 18 6 19 7 21 8 43 9 22 10 27 11 23 12
REMARK SMILES IDX 25 13 24 14 26 15 28 16 29 18 30 19 42 20 31 21 41 22 32 23
REMARK SMILES IDX 33 24 34 25 35 26 36 27 40 28 37 29 39 30 38 31 4 32 5 33
REMARK SMILES IDX 6 35 7 36 8 37 16 38 9 39 15 40 10 41 11 42 12 43 13 44
REMARK SMILES IDX 14 45
REMARK H PARENT 28 17 4 34
REMARK Flexibility Score: inf
ROOT
ATOM      1  C   UNL     1     -42.727  20.074   9.212  1.00  0.00     0.007 A 
ATOM      2  C   UNL     1     -42.694  20.641   7.908  1.00  0.00    -0.018 A 
ATOM      3  C   UNL     1     -42.137  22.046   7.709  1.00  0.00     0.047 C 
ATOM      4  C   UNL     1     -43.205  19.913   6.805  1.00  0.00     0.045 A 
ATOM      5  C   UNL     1     -43.737  18.650   6.972  1.00  0.00     0.026 A 
ATOM      6  C   UNL     1     -43.746  18.083   8.247  1.00  0.00     0.003 A 
ATOM      7  C   UNL     1     -43.250  18.775   9.357  1.00  0.00     0.011 A 
ENDROOT
BRANCH   1   8
ATOM      8  C   UNL     1     -42.219  20.722  10.456  1.00  0.00     0.089 A 
ATOM      9  N   UNL     1     -41.375  20.030  11.290  1.00  0.00    -0.224 NA
ATOM     10  C   UNL     1     -42.525  22.049  10.777  1.00  0.00     0.118 A 
ATOM     11  C   UNL     1     -40.892  20.598  12.416  1.00  0.00     0.197 A 
ATOM     12  N   UNL     1     -42.030  22.600  11.912  1.00  0.00    -0.313 N 
ATOM     13  C   UNL     1     -41.219  21.916  12.726  1.00  0.00     0.293 A 
ATOM     14  C   UNL     1     -42.418  23.994  12.209  1.00  0.00     0.153 C 
ATOM     15  O   UNL     1     -40.751  22.457  13.785  1.00  0.00    -0.265 OA
BRANCH  11  16
ATOM     16  N   UNL     1     -40.061  19.959  13.275  1.00  0.00    -0.336 N 
ATOM     17  H   UNL     1     -39.064  20.187  13.154  1.00  0.00     0.168 HD
BRANCH  16  18
ATOM     18  C   UNL     1     -40.322  19.067  14.271  1.00  0.00     0.040 A 
ATOM     19  C   UNL     1     -40.823  17.782  14.071  1.00  0.00     0.027 A 
ATOM     20  C   UNL     1     -40.046  19.509  15.563  1.00  0.00     0.027 A 
ATOM     21  C   UNL     1     -41.081  16.968  15.175  1.00  0.00     0.016 A 
ATOM     22  C   UNL     1     -40.284  18.704  16.661  1.00  0.00     0.016 A 
ATOM     23  C   UNL     1     -40.817  17.434  16.472  1.00  0.00     0.040 A 
BRANCH  23  24
ATOM     24  C   UNL     1     -41.092  16.576  17.685  1.00  0.00     0.254 C 
ATOM     25  O   UNL     1     -40.334  15.648  17.897  1.00  0.00    -0.269 OA
ATOM     26  N   UNL     1     -42.153  16.837  18.479  1.00  0.00    -0.334 N 
ATOM     27  C   UNL     1     -42.431  15.993  19.653  1.00  0.00     0.148 C 
ATOM     28  C   UNL     1     -43.134  17.923  18.216  1.00  0.00     0.148 C 
ATOM     29  C   UNL     1     -42.642  16.934  20.837  1.00  0.00     0.181 C 
ATOM     30  C   UNL     1     -43.385  18.722  19.493  1.00  0.00     0.181 C 
ATOM     31  O   UNL     1     -43.736  17.809  20.530  1.00  0.00    -0.378 OA
ENDBRANCH  23  24
ENDBRANCH  16  18
ENDBRANCH  11  16
ENDBRANCH   1   8
BRANCH   4  32
ATOM     32  N   UNL     1     -43.196  20.523   5.580  1.00  0.00    -0.322 N 
ATOM     33  C   UNL     1     -44.260  21.151   5.077  1.00  0.00     0.255 C 
ATOM     34  H   UNL     1     -42.331  20.496   5.023  1.00  0.00     0.170 HD
ATOM     35  O   UNL     1     -45.310  21.306   5.702  1.00  0.00    -0.269 OA
BRANCH  33  36
ATOM     36  C   UNL     1     -44.189  21.619   3.639  1.00  0.00     0.040 A 
ATOM     37  C   UNL     1     -45.110  21.197   2.667  1.00  0.00     0.014 A 
ATOM     38  C   UNL     1     -43.085  22.418   3.281  1.00  0.00     0.014 A 
ATOM     39  C   UNL     1     -44.978  21.624   1.339  1.00  0.00     0.005 A 
ATOM     40  C   UNL     1     -42.941  22.823   1.948  1.00  0.00     0.005 A 
ATOM     41  C   UNL     1     -43.888  22.436   0.966  1.00  0.00    -0.043 A 
BRANCH  41  42
ATOM     42  C   UNL     1     -43.752  22.914  -0.468  1.00  0.00    -0.013 C 
ATOM     43  C   UNL     1     -44.914  22.331  -1.274  1.00  0.00     0.016 C 
ATOM     44  C   UNL     1     -42.446  22.435  -1.087  1.00  0.00     0.016 C 
ATOM     45  C   UNL     1     -43.821  24.442  -0.575  1.00  0.00     0.016 C 
ENDBRANCH  41  42
ENDBRANCH  33  36
ENDBRANCH   4  32
TORSDOF 7
ENDMDL
MODEL 4
REMARK VINA RESULT:   -10.089      3.712      6.181
REMARK INTER + INTRA:         -14.545
REMARK INTER:                 -13.198
REMARK INTRA:                  -1.347
REMARK UNBOUND:                -0.326
REMARK SMILES Cc1c(NC(=O)c2ccc(C(C)(C)C)cc2)cccc1-c1cn(C)c(=O)c(Nc2ccc(C(=O)N3CCOCC3)cc2)n1
REMARK SMILES IDX 20 1 2 2 1 3 3 4 17 5 18 6 19 7 21 8 43 9 22 10 27 11 23 12
REMARK SMILES IDX 25 13 24 14 26 15 28 16 29 18 30 19 42 20 31 21 41 22 32 23
REMARK SMILES IDX 33 24 34 25 35 26 36 27 40 28 37 29 39 30 38 31 4 32 5 33
REMARK SMILES IDX 6 35 7 36 8 37 16 38 9 39 15 40 10 41 11 42 12 43 13 44
REMARK SMILES IDX 14 45
REMARK H PARENT 28 17 4 34
REMARK Flexibility Score: inf
ROOT
ATOM      1  C   UNL     1     -42.795  18.430   9.113  1.00  0.00     0.007 A 
ATOM      2  C   UNL     1     -42.636  19.268   7.975  1.00  0.00    -0.018 A 
ATOM      3  C   UNL     1     -41.915  20.603   8.115  1.00  0.00     0.047 C 
ATOM      4  C   UNL     1     -43.174  18.875   6.725  1.00  0.00     0.045 A 
ATOM      5  C   UNL     1     -43.852  17.680   6.587  1.00  0.00     0.026 A 
ATOM      6  C   UNL     1     -43.986  16.847   7.697  1.00  0.00     0.003 A 
ATOM      7  C   UNL     1     -43.468  17.205   8.946  1.00  0.00     0.011 A 
ENDROOT
BRANCH   1   8
ATOM      8  C   UNL     1     -42.275  18.714  10.483  1.00  0.00     0.089 A 
ATOM      9  N   UNL     1     -42.149  20.014  10.908  1.00  0.00    -0.224 NA
ATOM     10  C   UNL     1     -41.967  17.690  11.384  1.00  0.00     0.118 A 
ATOM     11  C   UNL     1     -41.693  20.299  12.147  1.00  0.00     0.197 A 
ATOM     12  N   UNL     1     -41.510  17.997  12.623  1.00  0.00    -0.313 N 
ATOM     13  C   UNL     1     -41.377  19.266  13.026  1.00  0.00     0.293 A 
ATOM     14  C   UNL     1     -41.171  16.870  13.515  1.00  0.00     0.153 C 
ATOM     15  O   UNL     1     -40.958  19.536  14.203  1.00  0.00    -0.265 OA
BRANCH  11  16
ATOM     16  N   UNL     1     -41.545  21.562  12.614  1.00  0.00    -0.336 N 
ATOM     17  H   UNL     1     -41.532  21.640  13.641  1.00  0.00     0.168 HD
BRANCH  16  18
ATOM     18  C   UNL     1     -41.410  22.747  11.955  1.00  0.00     0.040 A 
ATOM     19  C   UNL     1     -42.428  23.686  11.800  1.00  0.00     0.027 A 
ATOM     20  C   UNL     1     -40.148  22.999  11.422  1.00  0.00     0.027 A 
ATOM     21  C   UNL     1     -42.179  24.853  11.075  1.00  0.00     0.016 A 
ATOM     22  C   UNL     1     -39.888  24.159  10.716  1.00  0.00     0.016 A 
ATOM     23  C   UNL     1     -40.908  25.084  10.527  1.00  0.00     0.040 A 
BRANCH  23  24
ATOM     24  C   UNL     1     -40.612  26.335   9.733  1.00  0.00     0.254 C 
ATOM     25  O   UNL     1     -40.333  27.342  10.359  1.00  0.00    -0.269 OA
ATOM     26  N   UNL     1     -40.679  26.320   8.384  1.00  0.00    -0.334 N 
ATOM     27  C   UNL     1     -40.405  27.542   7.610  1.00  0.00     0.148 C 
ATOM     28  C   UNL     1     -41.076  25.126   7.591  1.00  0.00     0.148 C 
ATOM     29  C   UNL     1     -39.405  27.163   6.520  1.00  0.00     0.181 C 
ATOM     30  C   UNL     1     -40.095  24.910   6.441  1.00  0.00     0.181 C 
ATOM     31  O   UNL     1     -39.985  26.130   5.712  1.00  0.00    -0.378 OA
ENDBRANCH  23  24
ENDBRANCH  16  18
ENDBRANCH  11  16
ENDBRANCH   1   8
BRANCH   4  32
ATOM     32  N   UNL     1     -43.038  19.740   5.673  1.00  0.00    -0.322 N 
ATOM     33  C   UNL     1     -44.014  20.561   5.281  1.00  0.00     0.255 C 
ATOM     34  H   UNL     1     -42.144  19.757   5.162  1.00  0.00     0.170 HD
ATOM     35  O   UNL     1     -45.085  20.670   5.879  1.00  0.00    -0.269 OA
BRANCH  33  36
ATOM     36  C   UNL     1     -43.814  21.330   3.993  1.00  0.00     0.040 A 
ATOM     37  C   UNL     1     -42.695  22.151   3.775  1.00  0.00     0.014 A 
ATOM     38  C   UNL     1     -44.858  21.278   3.049  1.00  0.00     0.014 A 
ATOM     39  C   UNL     1     -42.576  22.877   2.582  1.00  0.00     0.005 A 
ATOM     40  C   UNL     1     -44.748  22.024   1.868  1.00  0.00     0.005 A 
ATOM     41  C   UNL     1     -43.605  22.825   1.620  1.00  0.00    -0.043 A 
BRANCH  41  42
ATOM     42  C   UNL     1     -43.469  23.596   0.321  1.00  0.00    -0.013 C 
ATOM     43  C   UNL     1     -42.311  22.988  -0.472  1.00  0.00     0.016 C 
ATOM     44  C   UNL     1     -43.160  25.064   0.582  1.00  0.00     0.016 C 
ATOM     45  C   UNL     1     -44.734  23.501  -0.540  1.00  0.00     0.016 C 
ENDBRANCH  41  42
ENDBRANCH  33  36
ENDBRANCH   4  32
TORSDOF 7
ENDMDL
MODEL 5
REMARK VINA RESULT:   -10.076      4.294     10.598
REMARK INTER + INTRA:         -14.526
REMARK INTER:                 -13.392
REMARK INTRA:                  -1.134
REMARK UNBOUND:                -0.326
REMARK SMILES Cc1c(NC(=O)c2ccc(C(C)(C)C)cc2)cccc1-c1cn(C)c(=O)c(Nc2ccc(C(=O)N3CCOCC3)cc2)n1
REMARK SMILES IDX 20 1 2 2 1 3 3 4 17 5 18 6 19 7 21 8 43 9 22 10 27 11 23 12
REMARK SMILES IDX 25 13 24 14 26 15 28 16 29 18 30 19 42 20 31 21 41 22 32 23
REMARK SMILES IDX 33 24 34 25 35 26 36 27 40 28 37 29 39 30 38 31 4 32 5 33
REMARK SMILES IDX 6 35 7 36 8 37 16 38 9 39 15 40 10 41 11 42 12 43 13 44
REMARK SMILES IDX 14 45
REMARK H PARENT 28 17 4 34
REMARK Flexibility Score: inf
ROOT
ATOM      1  C   UNL     1     -43.630  19.008   7.353  1.00  0.00     0.007 A 
ATOM      2  C   UNL     1     -43.356  19.140   8.742  1.00  0.00    -0.018 A 
ATOM      3  C   UNL     1     -43.130  20.524   9.340  1.00  0.00     0.047 C 
ATOM      4  C   UNL     1     -43.265  17.986   9.559  1.00  0.00     0.045 A 
ATOM      5  C   UNL     1     -43.441  16.724   9.028  1.00  0.00     0.026 A 
ATOM      6  C   UNL     1     -43.735  16.596   7.671  1.00  0.00     0.003 A 
ATOM      7  C   UNL     1     -43.832  17.715   6.836  1.00  0.00     0.011 A 
ENDROOT
BRANCH   1   8
ATOM      8  C   UNL     1     -43.761  20.134   6.381  1.00  0.00     0.089 A 
ATOM      9  N   UNL     1     -42.674  20.926   6.105  1.00  0.00    -0.224 NA
ATOM     10  C   UNL     1     -44.951  20.375   5.686  1.00  0.00     0.118 A 
ATOM     11  C   UNL     1     -42.763  21.944   5.222  1.00  0.00     0.197 A 
ATOM     12  N   UNL     1     -45.019  21.402   4.803  1.00  0.00    -0.313 N 
ATOM     13  C   UNL     1     -43.960  22.177   4.549  1.00  0.00     0.293 A 
ATOM     14  C   UNL     1     -46.313  21.623   4.126  1.00  0.00     0.153 C 
ATOM     15  O   UNL     1     -44.039  23.132   3.703  1.00  0.00    -0.265 OA
BRANCH  11  16
ATOM     16  N   UNL     1     -41.724  22.758   4.916  1.00  0.00    -0.336 N 
ATOM     17  H   UNL     1     -41.449  22.747   3.924  1.00  0.00     0.168 HD
BRANCH  16  18
ATOM     18  C   UNL     1     -40.982  23.589   5.700  1.00  0.00     0.040 A 
ATOM     19  C   UNL     1     -40.711  24.924   5.405  1.00  0.00     0.027 A 
ATOM     20  C   UNL     1     -40.484  23.025   6.873  1.00  0.00     0.027 A 
ATOM     21  C   UNL     1     -39.910  25.669   6.271  1.00  0.00     0.016 A 
ATOM     22  C   UNL     1     -39.702  23.760   7.745  1.00  0.00     0.016 A 
ATOM     23  C   UNL     1     -39.399  25.081   7.439  1.00  0.00     0.040 A 
BRANCH  23  24
ATOM     24  C   UNL     1     -38.524  25.862   8.391  1.00  0.00     0.254 C 
ATOM     25  O   UNL     1     -37.322  25.834   8.197  1.00  0.00    -0.269 OA
ATOM     26  N   UNL     1     -39.072  26.543   9.422  1.00  0.00    -0.334 N 
ATOM     27  C   UNL     1     -38.218  27.292  10.358  1.00  0.00     0.148 C 
ATOM     28  C   UNL     1     -40.527  26.549   9.725  1.00  0.00     0.148 C 
ATOM     29  C   UNL     1     -38.817  28.691  10.484  1.00  0.00     0.181 C 
ATOM     30  C   UNL     1     -41.005  27.978   9.972  1.00  0.00     0.181 C 
ATOM     31  O   UNL     1     -40.163  28.566  10.962  1.00  0.00    -0.378 OA
ENDBRANCH  23  24
ENDBRANCH  16  18
ENDBRANCH  11  16
ENDBRANCH   1   8
BRANCH   4  32
ATOM     32  N   UNL     1     -42.949  18.163  10.879  1.00  0.00    -0.322 N 
ATOM     33  C   UNL     1     -41.744  17.882  11.379  1.00  0.00     0.255 C 
ATOM     34  H   UNL     1     -43.672  18.530  11.513  1.00  0.00     0.170 HD
ATOM     35  O   UNL     1     -40.794  17.518  10.686  1.00  0.00    -0.269 OA
BRANCH  33  36
ATOM     36  C   UNL     1     -41.574  17.938  12.882  1.00  0.00     0.040 A 
ATOM     37  C   UNL     1     -41.811  19.109  13.621  1.00  0.00     0.014 A 
ATOM     38  C   UNL     1     -41.056  16.788  13.510  1.00  0.00     0.014 A 
ATOM     39  C   UNL     1     -41.598  19.123  15.006  1.00  0.00     0.005 A 
ATOM     40  C   UNL     1     -40.820  16.812  14.890  1.00  0.00     0.005 A 
ATOM     41  C   UNL     1     -41.094  17.976  15.652  1.00  0.00    -0.043 A 
BRANCH  41  42
ATOM     42  C   UNL     1     -40.880  17.984  17.154  1.00  0.00    -0.013 C 
ATOM     43  C   UNL     1     -40.500  16.568  17.587  1.00  0.00     0.016 C 
ATOM     44  C   UNL     1     -42.150  18.390  17.890  1.00  0.00     0.016 C 
ATOM     45  C   UNL     1     -39.744  18.927  17.569  1.00  0.00     0.016 C 
ENDBRANCH  41  42
ENDBRANCH  33  36
ENDBRANCH   4  32
TORSDOF 7
ENDMDL
MODEL 6
REMARK VINA RESULT:    -9.962      2.882      4.321
REMARK INTER + INTRA:         -14.365
REMARK INTER:                 -13.338
REMARK INTRA:                  -1.026
REMARK UNBOUND:                -0.326
REMARK SMILES Cc1c(NC(=O)c2ccc(C(C)(C)C)cc2)cccc1-c1cn(C)c(=O)c(Nc2ccc(C(=O)N3CCOCC3)cc2)n1
REMARK SMILES IDX 20 1 2 2 1 3 3 4 17 5 18 6 19 7 21 8 43 9 22 10 27 11 23 12
REMARK SMILES IDX 25 13 24 14 26 15 28 16 29 18 30 19 42 20 31 21 41 22 32 23
REMARK SMILES IDX 33 24 34 25 35 26 36 27 40 28 37 29 39 30 38 31 4 32 5 33
REMARK SMILES IDX 6 35 7 36 8 37 16 38 9 39 15 40 10 41 11 42 12 43 13 44
REMARK SMILES IDX 14 45
REMARK H PARENT 28 17 4 34
REMARK Flexibility Score: inf
ROOT
ATOM      1  C   UNL     1     -42.609  21.120   9.487  1.00  0.00     0.007 A 
ATOM      2  C   UNL     1     -42.604  21.548   8.131  1.00  0.00    -0.018 A 
ATOM      3  C   UNL     1     -41.985  22.893   7.766  1.00  0.00     0.047 C 
ATOM      4  C   UNL     1     -43.197  20.740   7.130  1.00  0.00     0.045 A 
ATOM      5  C   UNL     1     -43.784  19.531   7.448  1.00  0.00     0.026 A 
ATOM      6  C   UNL     1     -43.767  19.100   8.774  1.00  0.00     0.003 A 
ATOM      7  C   UNL     1     -43.189  19.873   9.787  1.00  0.00     0.011 A 
ENDROOT
BRANCH   1   8
ATOM      8  C   UNL     1     -42.015  21.864  10.637  1.00  0.00     0.089 A 
ATOM      9  N   UNL     1     -40.737  21.576  11.049  1.00  0.00    -0.224 NA
ATOM     10  C   UNL     1     -42.700  22.900  11.280  1.00  0.00     0.118 A 
ATOM     11  C   UNL     1     -40.172  22.242  12.079  1.00  0.00     0.197 A 
ATOM     12  N   UNL     1     -42.116  23.557  12.312  1.00  0.00    -0.313 N 
ATOM     13  C   UNL     1     -40.875  23.262  12.716  1.00  0.00     0.293 A 
ATOM     14  C   UNL     1     -42.905  24.618  12.969  1.00  0.00     0.153 C 
ATOM     15  O   UNL     1     -40.336  23.902  13.682  1.00  0.00    -0.265 OA
BRANCH  11  16
ATOM     16  N   UNL     1     -38.918  21.995  12.528  1.00  0.00    -0.336 N 
ATOM     17  H   UNL     1     -38.169  22.412  11.956  1.00  0.00     0.168 HD
BRANCH  16  18
ATOM     18  C   UNL     1     -38.480  21.290  13.608  1.00  0.00     0.040 A 
ATOM     19  C   UNL     1     -39.302  20.551  14.457  1.00  0.00     0.027 A 
ATOM     20  C   UNL     1     -37.106  21.331  13.837  1.00  0.00     0.027 A 
ATOM     21  C   UNL     1     -38.741  19.893  15.553  1.00  0.00     0.016 A 
ATOM     22  C   UNL     1     -36.540  20.669  14.910  1.00  0.00     0.016 A 
ATOM     23  C   UNL     1     -37.358  19.960  15.782  1.00  0.00     0.040 A 
BRANCH  23  24
ATOM     24  C   UNL     1     -36.725  19.263  16.964  1.00  0.00     0.254 C 
ATOM     25  O   UNL     1     -36.612  18.052  16.904  1.00  0.00    -0.269 OA
ATOM     26  N   UNL     1     -36.323  19.973  18.040  1.00  0.00    -0.334 N 
ATOM     27  C   UNL     1     -35.719  19.293  19.198  1.00  0.00     0.148 C 
ATOM     28  C   UNL     1     -36.500  21.443  18.173  1.00  0.00     0.148 C 
ATOM     29  C   UNL     1     -34.431  20.043  19.532  1.00  0.00     0.181 C 
ATOM     30  C   UNL     1     -35.199  22.088  18.645  1.00  0.00     0.181 C 
ATOM     31  O   UNL     1     -34.765  21.408  19.821  1.00  0.00    -0.378 OA
ENDBRANCH  23  24
ENDBRANCH  16  18
ENDBRANCH  11  16
ENDBRANCH   1   8
BRANCH   4  32
ATOM     32  N   UNL     1     -43.210  21.220   5.849  1.00  0.00    -0.322 N 
ATOM     33  C   UNL     1     -44.338  21.455   5.176  1.00  0.00     0.255 C 
ATOM     34  H   UNL     1     -42.311  21.409   5.384  1.00  0.00     0.170 HD
ATOM     35  O   UNL     1     -45.458  21.338   5.674  1.00  0.00    -0.269 OA
BRANCH  33  36
ATOM     36  C   UNL     1     -44.224  21.801   3.707  1.00  0.00     0.040 A 
ATOM     37  C   UNL     1     -45.077  21.248   2.737  1.00  0.00     0.014 A 
ATOM     38  C   UNL     1     -43.147  22.625   3.326  1.00  0.00     0.014 A 
ATOM     39  C   UNL     1     -44.905  21.566   1.384  1.00  0.00     0.005 A 
ATOM     40  C   UNL     1     -42.962  22.922   1.969  1.00  0.00     0.005 A 
ATOM     41  C   UNL     1     -43.841  22.401   0.986  1.00  0.00    -0.043 A 
BRANCH  41  42
ATOM     42  C   UNL     1     -43.664  22.761  -0.476  1.00  0.00    -0.013 C 
ATOM     43  C   UNL     1     -44.941  22.368  -1.220  1.00  0.00     0.016 C 
ATOM     44  C   UNL     1     -42.494  22.005  -1.092  1.00  0.00     0.016 C 
ATOM     45  C   UNL     1     -43.443  24.265  -0.678  1.00  0.00     0.016 C 
ENDBRANCH  41  42
ENDBRANCH  33  36
ENDBRANCH   4  32
TORSDOF 7
ENDMDL
MODEL 7
REMARK VINA RESULT:    -9.906      1.643      2.333
REMARK INTER + INTRA:         -14.286
REMARK INTER:                 -13.768
REMARK INTRA:                  -0.518
REMARK UNBOUND:                -0.326
REMARK SMILES Cc1c(NC(=O)c2ccc(C(C)(C)C)cc2)cccc1-c1cn(C)c(=O)c(Nc2ccc(C(=O)N3CCOCC3)cc2)n1
REMARK SMILES IDX 20 1 2 2 1 3 3 4 17 5 18 6 19 7 21 8 43 9 22 10 27 11 23 12
REMARK SMILES IDX 25 13 24 14 26 15 28 16 29 18 30 19 42 20 31 21 41 22 32 23
REMARK SMILES IDX 33 24 34 25 35 26 36 27 40 28 37 29 39 30 38 31 4 32 5 33
REMARK SMILES IDX 6 35 7 36 8 37 16 38 9 39 15 40 10 41 11 42 12 43 13 44
REMARK SMILES IDX 14 45
REMARK H PARENT 28 17 4 34
REMARK Flexibility Score: inf
ROOT
ATOM      1  C   UNL     1     -43.473  19.923   9.566  1.00  0.00     0.007 A 
ATOM      2  C   UNL     1     -43.360  20.061   8.155  1.00  0.00    -0.018 A 
ATOM      3  C   UNL     1     -42.474  19.099   7.370  1.00  0.00     0.047 C 
ATOM      4  C   UNL     1     -44.046  21.105   7.487  1.00  0.00     0.045 A 
ATOM      5  C   UNL     1     -44.831  22.000   8.187  1.00  0.00     0.026 A 
ATOM      6  C   UNL     1     -44.962  21.850   9.567  1.00  0.00     0.003 A 
ATOM      7  C   UNL     1     -44.298  20.830  10.257  1.00  0.00     0.011 A 
ENDROOT
BRANCH   1   8
ATOM      8  C   UNL     1     -42.815  18.869  10.393  1.00  0.00     0.089 A 
ATOM      9  N   UNL     1     -42.465  19.141  11.693  1.00  0.00    -0.224 NA
ATOM     10  C   UNL     1     -42.595  17.576   9.905  1.00  0.00     0.118 A 
ATOM     11  C   UNL     1     -41.879  18.202  12.466  1.00  0.00     0.197 A 
ATOM     12  N   UNL     1     -42.005  16.648  10.697  1.00  0.00    -0.313 N 
ATOM     13  C   UNL     1     -41.656  16.924  11.958  1.00  0.00     0.293 A 
ATOM     14  C   UNL     1     -41.772  15.312  10.111  1.00  0.00     0.153 C 
ATOM     15  O   UNL     1     -41.114  16.031  12.695  1.00  0.00    -0.265 OA
BRANCH  11  16
ATOM     16  N   UNL     1     -41.510  18.419  13.751  1.00  0.00    -0.336 N 
ATOM     17  H   UNL     1     -41.980  17.814  14.440  1.00  0.00     0.168 HD
BRANCH  16  18
ATOM     18  C   UNL     1     -40.622  19.303  14.287  1.00  0.00     0.040 A 
ATOM     19  C   UNL     1     -39.930  20.269  13.560  1.00  0.00     0.027 A 
ATOM     20  C   UNL     1     -40.430  19.202  15.664  1.00  0.00     0.027 A 
ATOM     21  C   UNL     1     -39.020  21.099  14.215  1.00  0.00     0.016 A 
ATOM     22  C   UNL     1     -39.542  20.031  16.324  1.00  0.00     0.016 A 
ATOM     23  C   UNL     1     -38.822  20.974  15.599  1.00  0.00     0.040 A 
BRANCH  23  24
ATOM     24  C   UNL     1     -37.839  21.855  16.334  1.00  0.00     0.254 C 
ATOM     25  O   UNL     1     -38.231  22.949  16.695  1.00  0.00    -0.269 OA
ATOM     26  N   UNL     1     -36.575  21.432  16.554  1.00  0.00    -0.334 N 
ATOM     27  C   UNL     1     -35.612  22.296  17.257  1.00  0.00     0.148 C 
ATOM     28  C   UNL     1     -36.045  20.129  16.073  1.00  0.00     0.148 C 
ATOM     29  C   UNL     1     -34.971  21.447  18.353  1.00  0.00     0.181 C 
ATOM     30  C   UNL     1     -35.301  19.417  17.201  1.00  0.00     0.181 C 
ATOM     31  O   UNL     1     -34.336  20.318  17.738  1.00  0.00    -0.378 OA
ENDBRANCH  23  24
ENDBRANCH  16  18
ENDBRANCH  11  16
ENDBRANCH   1   8
BRANCH   4  32
ATOM     32  N   UNL     1     -43.864  21.225   6.136  1.00  0.00    -0.322 N 
ATOM     33  C   UNL     1     -43.382  22.330   5.566  1.00  0.00     0.255 C 
ATOM     34  H   UNL     1     -44.110  20.427   5.534  1.00  0.00     0.170 HD
ATOM     35  O   UNL     1     -42.984  23.303   6.208  1.00  0.00    -0.269 OA
BRANCH  33  36
ATOM     36  C   UNL     1     -43.406  22.413   4.055  1.00  0.00     0.040 A 
ATOM     37  C   UNL     1     -42.598  23.312   3.340  1.00  0.00     0.014 A 
ATOM     38  C   UNL     1     -44.361  21.622   3.387  1.00  0.00     0.014 A 
ATOM     39  C   UNL     1     -42.687  23.382   1.943  1.00  0.00     0.005 A 
ATOM     40  C   UNL     1     -44.466  21.711   1.993  1.00  0.00     0.005 A 
ATOM     41  C   UNL     1     -43.627  22.586   1.257  1.00  0.00    -0.043 A 
BRANCH  41  42
ATOM     42  C   UNL     1     -43.713  22.648  -0.256  1.00  0.00    -0.013 C 
ATOM     43  C   UNL     1     -44.373  21.358  -0.747  1.00  0.00     0.016 C 
ATOM     44  C   UNL     1     -42.328  22.752  -0.883  1.00  0.00     0.016 C 
ATOM     45  C   UNL     1     -44.565  23.828  -0.738  1.00  0.00     0.016 C 
ENDBRANCH  41  42
ENDBRANCH  33  36
ENDBRANCH   4  32
TORSDOF 7
ENDMDL
MODEL 8
REMARK VINA RESULT:    -9.851      3.879      7.347
REMARK INTER + INTRA:         -14.208
REMARK INTER:                 -12.663
REMARK INTRA:                  -1.545
REMARK UNBOUND:                -0.326
REMARK SMILES Cc1c(NC(=O)c2ccc(C(C)(C)C)cc2)cccc1-c1cn(C)c(=O)c(Nc2ccc(C(=O)N3CCOCC3)cc2)n1
REMARK SMILES IDX 20 1 2 2 1 3 3 4 17 5 18 6 19 7 21 8 43 9 22 10 27 11 23 12
REMARK SMILES IDX 25 13 24 14 26 15 28 16 29 18 30 19 42 20 31 21 41 22 32 23
REMARK SMILES IDX 33 24 34 25 35 26 36 27 40 28 37 29 39 30 38 31 4 32 5 33
REMARK SMILES IDX 6 35 7 36 8 37 16 38 9 39 15 40 10 41 11 42 12 43 13 44
REMARK SMILES IDX 14 45
REMARK H PARENT 28 17 4 34
REMARK Flexibility Score: inf
ROOT
ATOM      1  C   UNL     1     -40.779  25.523   8.527  1.00  0.00     0.007 A 
ATOM      2  C   UNL     1     -41.168  25.043   7.246  1.00  0.00    -0.018 A 
ATOM      3  C   UNL     1     -42.196  23.923   7.140  1.00  0.00     0.047 C 
ATOM      4  C   UNL     1     -40.579  25.585   6.077  1.00  0.00     0.045 A 
ATOM      5  C   UNL     1     -39.628  26.583   6.157  1.00  0.00     0.026 A 
ATOM      6  C   UNL     1     -39.264  27.071   7.412  1.00  0.00     0.003 A 
ATOM      7  C   UNL     1     -39.826  26.557   8.586  1.00  0.00     0.011 A 
ENDROOT
BRANCH   1   8
ATOM      8  C   UNL     1     -41.320  25.051   9.835  1.00  0.00     0.089 A 
ATOM      9  N   UNL     1     -41.023  23.785  10.279  1.00  0.00    -0.224 NA
ATOM     10  C   UNL     1     -42.078  25.883  10.666  1.00  0.00     0.118 A 
ATOM     11  C   UNL     1     -41.490  23.337  11.464  1.00  0.00     0.197 A 
ATOM     12  N   UNL     1     -42.538  25.413  11.852  1.00  0.00    -0.313 N 
ATOM     13  C   UNL     1     -42.255  24.176  12.271  1.00  0.00     0.293 A 
ATOM     14  C   UNL     1     -43.359  26.331  12.666  1.00  0.00     0.153 C 
ATOM     15  O   UNL     1     -42.686  23.756  13.399  1.00  0.00    -0.265 OA
BRANCH  11  16
ATOM     16  N   UNL     1     -41.232  22.098  11.946  1.00  0.00    -0.336 N 
ATOM     17  H   UNL     1     -40.784  22.084  12.874  1.00  0.00     0.168 HD
BRANCH  16  18
ATOM     18  C   UNL     1     -41.463  20.866  11.411  1.00  0.00     0.040 A 
ATOM     19  C   UNL     1     -40.502  19.864  11.287  1.00  0.00     0.027 A 
ATOM     20  C   UNL     1     -42.767  20.633  10.978  1.00  0.00     0.027 A 
ATOM     21  C   UNL     1     -40.850  18.651  10.692  1.00  0.00     0.016 A 
ATOM     22  C   UNL     1     -43.124  19.429  10.401  1.00  0.00     0.016 A 
ATOM     23  C   UNL     1     -42.162  18.438  10.242  1.00  0.00     0.040 A 
BRANCH  23  24
ATOM     24  C   UNL     1     -42.566  17.136   9.588  1.00  0.00     0.254 C 
ATOM     25  O   UNL     1     -42.827  16.200  10.321  1.00  0.00    -0.269 OA
ATOM     26  N   UNL     1     -42.611  17.033   8.242  1.00  0.00    -0.334 N 
ATOM     27  C   UNL     1     -42.990  15.762   7.604  1.00  0.00     0.148 C 
ATOM     28  C   UNL     1     -42.241  18.137   7.317  1.00  0.00     0.148 C 
ATOM     29  C   UNL     1     -44.065  16.087   6.568  1.00  0.00     0.181 C 
ATOM     30  C   UNL     1     -43.307  18.294   6.235  1.00  0.00     0.181 C 
ATOM     31  O   UNL     1     -43.518  17.022   5.628  1.00  0.00    -0.378 OA
ENDBRANCH  23  24
ENDBRANCH  16  18
ENDBRANCH  11  16
ENDBRANCH   1   8
BRANCH   4  32
ATOM     32  N   UNL     1     -40.951  25.054   4.872  1.00  0.00    -0.322 N 
ATOM     33  C   UNL     1     -41.923  25.574   4.121  1.00  0.00     0.255 C 
ATOM     34  H   UNL     1     -40.459  24.217   4.530  1.00  0.00     0.170 HD
ATOM     35  O   UNL     1     -42.511  26.618   4.406  1.00  0.00    -0.269 OA
BRANCH  33  36
ATOM     36  C   UNL     1     -42.372  24.791   2.906  1.00  0.00     0.040 A 
ATOM     37  C   UNL     1     -42.888  23.487   3.002  1.00  0.00     0.014 A 
ATOM     38  C   UNL     1     -42.149  25.381   1.646  1.00  0.00     0.014 A 
ATOM     39  C   UNL     1     -43.250  22.786   1.845  1.00  0.00     0.005 A 
ATOM     40  C   UNL     1     -42.489  24.668   0.489  1.00  0.00     0.005 A 
ATOM     41  C   UNL     1     -43.048  23.368   0.576  1.00  0.00    -0.043 A 
BRANCH  41  42
ATOM     42  C   UNL     1     -43.456  22.617  -0.677  1.00  0.00    -0.013 C 
ATOM     43  C   UNL     1     -44.218  23.585  -1.583  1.00  0.00     0.016 C 
ATOM     44  C   UNL     1     -44.368  21.444  -0.344  1.00  0.00     0.016 C 
ATOM     45  C   UNL     1     -42.243  22.095  -1.457  1.00  0.00     0.016 C 
ENDBRANCH  41  42
ENDBRANCH  33  36
ENDBRANCH   4  32
TORSDOF 7
ENDMDL
MODEL 9
REMARK VINA RESULT:    -9.753      4.006      7.752
REMARK INTER + INTRA:         -14.071
REMARK INTER:                 -13.011
REMARK INTRA:                  -1.060
REMARK UNBOUND:                -0.326
REMARK SMILES Cc1c(NC(=O)c2ccc(C(C)(C)C)cc2)cccc1-c1cn(C)c(=O)c(Nc2ccc(C(=O)N3CCOCC3)cc2)n1
REMARK SMILES IDX 20 1 2 2 1 3 3 4 17 5 18 6 19 7 21 8 43 9 22 10 27 11 23 12
REMARK SMILES IDX 25 13 24 14 26 15 28 16 29 18 30 19 42 20 31 21 41 22 32 23
REMARK SMILES IDX 33 24 34 25 35 26 36 27 40 28 37 29 39 30 38 31 4 32 5 33
REMARK SMILES IDX 6 35 7 36 8 37 16 38 9 39 15 40 10 41 11 42 12 43 13 44
REMARK SMILES IDX 14 45
REMARK H PARENT 28 17 4 34
REMARK Flexibility Score: inf
ROOT
ATOM      1  C   UNL     1     -41.633  26.351   8.726  1.00  0.00     0.007 A 
ATOM      2  C   UNL     1     -41.778  25.809   7.419  1.00  0.00    -0.018 A 
ATOM      3  C   UNL     1     -41.879  24.299   7.235  1.00  0.00     0.047 C 
ATOM      4  C   UNL     1     -41.800  26.669   6.294  1.00  0.00     0.045 A 
ATOM      5  C   UNL     1     -41.683  28.036   6.442  1.00  0.00     0.026 A 
ATOM      6  C   UNL     1     -41.566  28.570   7.725  1.00  0.00     0.003 A 
ATOM      7  C   UNL     1     -41.541  27.749   8.858  1.00  0.00     0.011 A 
ENDROOT
BRANCH   1   8
ATOM      8  C   UNL     1     -41.603  25.566   9.996  1.00  0.00     0.089 A 
ATOM      9  N   UNL     1     -41.977  24.245   9.990  1.00  0.00    -0.224 NA
ATOM     10  C   UNL     1     -41.141  26.118  11.195  1.00  0.00     0.118 A 
ATOM     11  C   UNL     1     -41.949  23.509  11.122  1.00  0.00     0.197 A 
ATOM     12  N   UNL     1     -41.120  25.363  12.321  1.00  0.00    -0.313 N 
ATOM     13  C   UNL     1     -41.498  24.080  12.310  1.00  0.00     0.293 A 
ATOM     14  C   UNL     1     -40.652  26.015  13.561  1.00  0.00     0.153 C 
ATOM     15  O   UNL     1     -41.459  23.380  13.378  1.00  0.00    -0.265 OA
BRANCH  11  16
ATOM     16  N   UNL     1     -42.312  22.205  11.173  1.00  0.00    -0.336 N 
ATOM     17  H   UNL     1     -42.322  21.801  12.120  1.00  0.00     0.168 HD
BRANCH  16  18
ATOM     18  C   UNL     1     -42.666  21.339  10.183  1.00  0.00     0.040 A 
ATOM     19  C   UNL     1     -43.980  21.044   9.822  1.00  0.00     0.027 A 
ATOM     20  C   UNL     1     -41.609  20.734   9.505  1.00  0.00     0.027 A 
ATOM     21  C   UNL     1     -44.220  20.113   8.810  1.00  0.00     0.016 A 
ATOM     22  C   UNL     1     -41.838  19.823   8.491  1.00  0.00     0.016 A 
ATOM     23  C   UNL     1     -43.145  19.497   8.150  1.00  0.00     0.040 A 
BRANCH  23  24
ATOM     24  C   UNL     1     -43.376  18.481   7.056  1.00  0.00     0.254 C 
ATOM     25  O   UNL     1     -43.462  18.898   5.915  1.00  0.00    -0.269 OA
ATOM     26  N   UNL     1     -43.496  17.169   7.355  1.00  0.00    -0.334 N 
ATOM     27  C   UNL     1     -43.734  16.180   6.291  1.00  0.00     0.148 C 
ATOM     28  C   UNL     1     -43.456  16.632   8.741  1.00  0.00     0.148 C 
ATOM     29  C   UNL     1     -42.718  15.058   6.491  1.00  0.00     0.181 C 
ATOM     30  C   UNL     1     -42.521  15.428   8.811  1.00  0.00     0.181 C 
ATOM     31  O   UNL     1     -42.909  14.502   7.799  1.00  0.00    -0.378 OA
ENDBRANCH  23  24
ENDBRANCH  16  18
ENDBRANCH  11  16
ENDBRANCH   1   8
BRANCH   4  32
ATOM     32  N   UNL     1     -41.891  26.094   5.055  1.00  0.00    -0.322 N 
ATOM     33  C   UNL     1     -43.025  26.063   4.353  1.00  0.00     0.255 C 
ATOM     34  H   UNL     1     -41.047  25.667   4.647  1.00  0.00     0.170 HD
ATOM     35  O   UNL     1     -44.061  26.617   4.721  1.00  0.00    -0.269 OA
BRANCH  33  36
ATOM     36  C   UNL     1     -43.048  25.235   3.086  1.00  0.00     0.040 A 
ATOM     37  C   UNL     1     -42.819  25.796   1.819  1.00  0.00     0.014 A 
ATOM     38  C   UNL     1     -43.422  23.883   3.213  1.00  0.00     0.014 A 
ATOM     39  C   UNL     1     -42.894  24.997   0.671  1.00  0.00     0.005 A 
ATOM     40  C   UNL     1     -43.520  23.091   2.062  1.00  0.00     0.005 A 
ATOM     41  C   UNL     1     -43.251  23.638   0.781  1.00  0.00    -0.043 A 
BRANCH  41  42
ATOM     42  C   UNL     1     -43.315  22.767  -0.459  1.00  0.00    -0.013 C 
ATOM     43  C   UNL     1     -43.954  23.585  -1.582  1.00  0.00     0.016 C 
ATOM     44  C   UNL     1     -44.167  21.527  -0.219  1.00  0.00     0.016 C 
ATOM     45  C   UNL     1     -41.923  22.327  -0.928  1.00  0.00     0.016 C 
ENDBRANCH  41  42
ENDBRANCH  33  36
ENDBRANCH   4  32
TORSDOF 7
ENDMDL
