REMARK  7 active torsions:
REMARK  status: ('A' for Active; 'I' for Inactive)
REMARK    1  A    between atoms: C1_1  and  C11_8 
REMARK    2  A    between atoms: C4_4  and  N19_31 
REMARK    3  A    between atoms: C13_10  and  N47_16 
REMARK       I    between atoms: N19_31  and  C21_32 
REMARK    4  A    between atoms: C21_32  and  C23_34 
REMARK    5  A    between atoms: C28_37  and  C33_40 
REMARK    6  A    between atoms: C46_17  and  N47_16 
REMARK    7  A    between atoms: C50_20  and  C71_23 
REMARK       I    between atoms: C71_23  and  N83_25 
ROOT
HETATM    1  C1  746 A 999     -43.485  19.277   8.901  1.00 15.15     0.017 A 
HETATM    2  C2  746 A 999     -43.511  19.821   7.587  1.00 12.91    -0.003 A 
HETATM    3  C3  746 A 999     -42.896  19.038   6.433  1.00 13.89     0.033 C 
HETATM    4  C4  746 A 999     -44.081  21.098   7.360  1.00 14.45     0.081 A 
HETATM    5  C5  746 A 999     -44.619  21.831   8.399  1.00 14.96     0.019 A 
HETATM    6  C7  746 A 999     -44.616  21.287   9.683  1.00 15.50     0.002 A 
HETATM    7  C9  746 A 999     -44.061  20.029   9.942  1.00 14.39     0.001 A 
ENDROOT
BRANCH   1   8
HETATM    8  C11 746 A 999     -42.926  17.946   9.281  1.00 15.34     0.100 A 
HETATM    9  N12 746 A 999     -42.318  17.785  10.502  1.00 14.59    -0.221 NA
HETATM   10  C13 746 A 999     -41.814  16.589  10.875  1.00 15.42     0.220 A 
HETATM   11  C14 746 A 999     -41.941  15.488  10.031  1.00 14.94     0.297 A 
HETATM   12  O15 746 A 999     -41.476  14.353  10.390  1.00 15.33    -0.264 OA
HETATM   13  N16 746 A 999     -42.543  15.634   8.846  1.00 14.70    -0.289 N 
HETATM   14  C17 746 A 999     -43.056  16.826   8.453  1.00 14.55     0.098 A 
HETATM   15  C60 746 A 999     -42.685  14.499   7.912  1.00 15.48     0.134 C 
BRANCH  10  16
HETATM   16  N47 746 A 999     -41.201  16.377  12.064  1.00 16.65    -0.223 NA
BRANCH  16  17
HETATM   17  C46 746 A 999     -40.955  17.222  13.104  1.00 17.22     0.083 A 
HETATM   18  C48 746 A 999     -41.265  18.581  13.110  1.00 18.14     0.019 A 
HETATM   19  C49 746 A 999     -40.935  19.354  14.224  1.00 20.19     0.006 A 
HETATM   20  C50 746 A 999     -40.316  18.761  15.335  1.00 20.59     0.056 A 
HETATM   21  C51 746 A 999     -40.042  17.398  15.336  1.00 19.41     0.006 A 
HETATM   22  C52 746 A 999     -40.358  16.643  14.222  1.00 17.19     0.019 A 
BRANCH  20  23
HETATM   23  C71 746 A 999     -39.942  19.575  16.552  1.00 23.61     0.257 C 
HETATM   24  O72 746 A 999     -40.786  20.329  17.001  1.00 25.21    -0.267 OA
HETATM   25  N83 746 A 999     -38.709  19.468  17.093  1.00 27.90    -0.311 N 
HETATM   26  C82 746 A 999     -38.339  20.271  18.270  1.00 32.11     0.137 C 
HETATM   27  C84 746 A 999     -37.635  18.604  16.535  1.00 30.18     0.137 C 
HETATM   28  C81 746 A 999     -37.726  19.312  19.288  1.00 34.72     0.167 C 
HETATM   29  O86 746 A 999     -36.588  18.680  18.686  1.00 35.87    -0.350 OA
HETATM   30  C85 746 A 999     -36.988  17.786  17.650  1.00 32.06     0.167 C 
ENDBRANCH  20  23
ENDBRANCH  16  17
ENDBRANCH  10  16
ENDBRANCH   1   8
BRANCH   4  31
HETATM   31  N19 746 A 999     -44.036  21.598   6.087  1.00 13.96    -0.208 NA
HETATM   32  C21 746 A 999     -44.847  21.177   5.115  1.00 16.15     0.279 C 
HETATM   33  O22 746 A 999     -45.755  20.366   5.298  1.00 18.31    -0.265 OA
BRANCH  32  34
HETATM   34  C23 746 A 999     -44.575  21.665   3.708  1.00 17.07     0.058 A 
HETATM   35  C24 746 A 999     -45.554  21.633   2.701  1.00 15.81     0.004 A 
HETATM   36  C26 746 A 999     -45.242  22.056   1.402  1.00 16.05    -0.004 A 
HETATM   37  C28 746 A 999     -43.929  22.465   1.091  1.00 16.77    -0.023 A 
HETATM   38  C29 746 A 999     -42.939  22.455   2.106  1.00 16.95    -0.004 A 
HETATM   39  C31 746 A 999     -43.255  22.056   3.411  1.00 16.14     0.004 A 
BRANCH  37  40
HETATM   40  C33 746 A 999     -43.594  22.940  -0.310  1.00 17.88     0.019 C 
HETATM   41  C34 746 A 999     -43.371  24.452  -0.258  1.00 18.06     0.004 C 
HETATM   42  C38 746 A 999     -44.735  22.652  -1.277  1.00 20.27     0.004 C 
HETATM   43  C42 746 A 999     -42.313  22.291  -0.848  1.00 20.06     0.004 C 
ENDBRANCH  37  40
ENDBRANCH  32  34
ENDBRANCH   4  31
TORSDOF 7
